*
*
*
*                       LINUX           Fri Jun 21 19:23:41 2024
*
*
*
*  PROGRAM  advgen
*
*  Name           : advgen - Quantus - (64-bit)
*  Version        : 21.2.2-p045
*  Build Date     : Fri Sep 23 10:27:37 PDT 2022
*
*  HSPICE LIBRARY
*
*!LENGTH_UNITS METERS
*
*
*

*
.SUBCKT FA VDD GND A B C Carry Sum
*
*
*  caps2d version: 10
*
*
*       TRANSISTOR CARDS
*
*
MavD1_1	avC9	A#5	avC10#22	GND#9	nmos1v#20ivpcell#20gpdk090
+ L=1e-07	W=1.2e-07
+ AD=6.96e-14	AS=6.96e-14	PD=1.16e-06	PS=1.16e-06
+ simW=1.2e-07 fw=1.2e-07
MavD1_2	avC9#4	B#6	GND#33	GND#9	nmos1v#20ivpcell#20gpdk090	L=1e-07
+ W=1.2e-07
+ AD=6.96e-14	AS=6.96e-14	PD=1.16e-06	PS=1.16e-06
+ simW=1.2e-07 fw=1.2e-07
MavD1_3	avC8#10	avC10#4	GND#24	GND#9
+ nmos1v#20ivpcell#20gpdk090	L=1e-07	W=1.2e-07
+ AD=6.96e-14	AS=6.96e-14	PD=1.16e-06	PS=1.16e-06	simW=1.2e-07 fw=1.2e-07
MavD1_4	Sum#13	avC8#4	C#10	GND#9	nmos1v#20ivpcell#20gpdk090	L=1e-07
+ W=1.2e-07
+ AD=6.96e-14	AS=6.96e-14	PD=1.16e-06	PS=1.16e-06
+ simW=1.2e-07 fw=1.2e-07
MavD1_5	avC8#19	C#5	Sum#10	GND#9	nmos1v#20ivpcell#20gpdk090
+ L=1e-07	W=1.2e-07
+ AD=6.96e-14	AS=6.96e-14	PD=1.16e-06	PS=1.16e-06
+ simW=1.2e-07 fw=1.2e-07
MavD1_6	Carry#3	avC10#5	C#22	GND#9
+ nmos1v#20ivpcell#20gpdk090	L=1e-07	W=1.2e-07
+ AD=6.96e-14	AS=6.96e-14	PD=1.16e-06	PS=1.16e-06	simW=1.2e-07 fw=1.2e-07
MavD1_7	Carry#9	avC8	B#19	GND#9	nmos1v#20ivpcell#20gpdk090
+ L=1e-07	W=1.2e-07
+ AD=6.96e-14	AS=6.96e-14	PD=1.16e-06	PS=1.16e-06
+ simW=1.2e-07 fw=1.2e-07
MavD7_1	B#11	A#6	avC10#18	VDD	pmos1v#20ivpcell#20gpdk090
+ L=1e-07	W=1.2e-07
+ AD=6.96e-14	AS=6.96e-14	PD=1.16e-06	PS=1.16e-06
+ simW=1.2e-07 fw=1.2e-07
MavD7_2	avC10#13	B#1	A#8	VDD	pmos1v#20ivpcell#20gpdk090
+ L=1e-07	W=1.2e-07
+ AD=6.96e-14	AS=6.96e-14	PD=1.16e-06	PS=1.16e-06
+ simW=1.2e-07 fw=1.2e-07
MavD7_3	avC8#13	avC10	VDD#13	VDD	pmos1v#20ivpcell#20gpdk090
+ L=1e-07	W=1.2e-07
+ AD=6.96e-14	AS=6.96e-14	PD=1.16e-06	PS=1.16e-06
+ simW=1.2e-07 fw=1.2e-07
MavD7_4	C#13	avC10#7	Sum#4	VDD	pmos1v#20ivpcell#20gpdk090
+ L=1e-07	W=1.2e-07
+ AD=6.96e-14	AS=6.96e-14	PD=1.16e-06	PS=1.16e-06
+ simW=1.2e-07 fw=1.2e-07
MavD7_5	avC10#27	C#4	Sum#7	VDD	pmos1v#20ivpcell#20gpdk090
+ L=1e-07	W=1.2e-07
+ AD=6.96e-14	AS=6.96e-14	PD=1.16e-06	PS=1.16e-06
+ simW=1.2e-07 fw=1.2e-07
MavD7_6	C#17	avC8#6	Carry#12	VDD	pmos1v#20ivpcell#20gpdk090
+ L=1e-07	W=1.2e-07
+ AD=6.96e-14	AS=6.96e-14	PD=1.16e-06	PS=1.16e-06
+ simW=1.2e-07 fw=1.2e-07
MavD7_7	B#14	avC10#10	Carry#6	VDD
+ pmos1v#20ivpcell#20gpdk090	L=1e-07	W=1.2e-07
+ AD=6.96e-14	AS=6.96e-14	PD=1.16e-06	PS=1.16e-06	simW=1.2e-07 fw=1.2e-07
*
*
*       RESISTOR AND CAP/DIODE CARDS
*
Rh1	GND#15	GND#8	3.468226	$mt2	$W=2.4e-07
+ $X=10.0505 $Y=11.66
Ri1	C	C#2	10.611846	$mt1	$W=1.2e-07
+ $X=0.4995 $Y=16.4
Ri2	B	B#3	10.851846	$mt1	$W=1.2e-07
+ $X=0.7195 $Y=12.8
Ri3	A	A#4	10.815238	$mt1	$W=1.2e-07
+ $X=0.7495 $Y=10.94
Ri4	B#7	B#4	10.840000	$mt1	$W=1.2e-07
+ $X=3.5 $Y=11.2995
Ri5	B#4	B#12	0.260000	$mt1	$W=2.4e-07
+ $X=3.14 $Y=11.96
Ri7	B#11	B#12	15.000000	$mt1	$W=2.4e-07
+ $X=2.72 $Y=11.96
Ri9	avC9#2	avC9#5	1.466667	$mt1	$W=1.2e-07
+ $X=4.32 $Y=7.9605
Ri11	avC9	avC9#2	15.000000	$mt1	$W=1.2e-07	$X=4.32 $Y=9.06
Ri12	avC9#4	avC9#5	15.000000	$mt1	$W=1.2e-07	$X=4.32 $Y=6.86
Ri14	A#9	A#1	10.628572	$mt1	$W=1.2e-07
+ $X=4.88 $Y=11.4805
Ri15	A#8	A#9	15.000000	$mt1	$W=1.2e-07
+ $X=4.88 $Y=11.96
Ri16	avC10#8	avC10#14	10.893333	$mt1	$W=1.2e-07
+ $X=5.42 $Y=12.6605
Ri18	avC10#14	avC10#16	1.103604	$mt1	$W=1.2e-07
+ $X=5.42 $Y=11.1005
Ri19	avC10#16	avC10#17	1.057544	$mt1	$W=1.2e-07
+ $X=4.6 $Y=10.3
Ri20	avC10#17	avC10#19	2.134969	$mt1	$W=1.2e-07
+ $X=2.98 $Y=10.3
Ri22	avC10#16	avC10#3	13.396938	$mt1	$W=1.2e-07
+ $X=5.42 $Y=7.75
Ri23	avC10#17	avC10#23	0.793939	$mt1	$W=1.2e-07
+ $X=3.78 $Y=9.71
Ri25	avC10#19	avC10#9	10.893333	$mt1	$W=1.2e-07
+ $X=2.18 $Y=12.6595
Ri26	avC10#13	avC10#14	15.000000	$mt1	$W=1.2e-07
+ $X=5.42 $Y=11.96
Ri27	avC10#18	avC10#19	15.000000	$mt1	$W=1.2e-07
+ $X=2.18 $Y=11.96
Ri28	avC10#22	avC10#23	15.000000	$mt1	$W=1.2e-07
+ $X=3.78 $Y=9.06
Ri29	GND#1	GND#8	10.000000	$mt1	$W=1.5e-07	$X=8.7 $Y=11.6
Ri31	GND#10	GND#4	10.344615	$mt1	$W=1.3e-07
+ $X=9.655 $Y=12.853
Ri32	GND#9	GND#10	15.000000	$mt1	$W=1.3e-07
+ $X=9.655 $Y=13.16
Ri33	avC8#2	avC8#9	11.653939	$mt1	$W=1.2e-07
+ $X=9.0855 $Y=5.3
Ri34	avC8#9	avC8#11	0.556938	$mt1	$W=1.2e-07
+ $X=7.82 $Y=4.91
Ri36	avC8#9	avC8#14	0.436938	$mt1	$W=1.2e-07
+ $X=7.82 $Y=5.6
Ri38	avC8#10	avC8#11	15.000000	$mt1	$W=1.2e-07
+ $X=7.82 $Y=4.46
Ri39	avC8#13	avC8#14	15.000000	$mt1	$W=1.2e-07
+ $X=7.82 $Y=5.96
Ri40	C#6	C#9	10.850271	$mt1	$W=1.2e-07
+ $X=11.2605 $Y=13.8
Ri41	C#9	C#11	0.748303	$mt1	$W=1.2e-07
+ $X=10.35 $Y=13.8
Ri43	C#9	C#14	0.873939	$mt1	$W=1.2e-07
+ $X=10.62 $Y=14.45
Ri45	C#14	C#1	10.790429	$mt1	$W=1.2e-07
+ $X=10.62 $Y=15.7595
Ri46	C#10	C#11	15.000000	$mt1	$W=1.2e-07
+ $X=10.08 $Y=13.16
Ri47	C#13	C#14	15.000000	$mt1	$W=1.2e-07
+ $X=10.62 $Y=15.16
Ri49	GND#13	GND#15	0.485000	$mt1	$W=2.4e-07
+ $X=12.1555 $Y=11.66
Ri50	GND#9	GND#13	15.000000	$mt1	$W=2.4e-07
+ $X=12.855 $Y=11.66
Ri51	avC10#11	avC10#28	10.791365	$mt1	$W=1.2e-07
+ $X=13.82 $Y=8.9695
Ri53	avC10#27	avC10#28	15.000000	$mt1	$W=1.2e-07
+ $X=13.82 $Y=9.56
Ri55	GND#16	GND#5	10.618334	$mt1	$W=2.4e-07
+ $X=14.8555 $Y=5.76
Ri56	GND#9	GND#16	15.000000	$mt1	$W=2.4e-07
+ $X=15.755 $Y=5.76
Ri57	avC8#7	avC8#17	11.750271	$mt1	$W=1.2e-07
+ $X=15.1355 $Y=10.6
Ri58	avC8#17	avC8#5	11.210271	$mt1	$W=1.2e-07
+ $X=12.91 $Y=10.6
Ri59	avC8#17	avC8#20	0.673939	$mt1	$W=1.2e-07
+ $X=13.82 $Y=11.1
Ri61	avC8#19	avC8#20	15.000000	$mt1	$W=1.2e-07
+ $X=13.82 $Y=11.66
Ri63	C#18	C#20	0.436938	$mt1	$W=1.2e-07
+ $X=16.72 $Y=7.5005
Ri64	C#20	C#3	12.080606	$mt1	$W=1.2e-07
+ $X=15.135 $Y=7.2
Ri65	C#20	C#23	1.246334	$mt1	$W=1.2e-07
+ $X=16.72 $Y=6.95
Ri67	C#17	C#18	15.000000	$mt1	$W=1.2e-07
+ $X=16.72 $Y=7.86
Ri68	C#22	C#23	15.000000	$mt1	$W=1.2e-07
+ $X=16.18 $Y=5.76
Ri70	B#15	B#17	1.028303	$mt1	$W=1.2e-07
+ $X=16.72 $Y=3.0905
Ri71	B#17	B#5	15.646335	$mt1	$W=1.2e-07	$X=15.54 $Y=2.8
Ri72	B#17	B#20	0.593939	$mt1	$W=1.2e-07
+ $X=16.18 $Y=2.36
Ri74	B#14	B#15	15.000000	$mt1	$W=1.2e-07
+ $X=16.72 $Y=3.86
Ri75	B#19	B#20	15.000000	$mt1	$W=1.2e-07
+ $X=16.18 $Y=1.86
Ri76	Carry	Carry#1	0.263604	$mt1	$W=1.2e-07
+ $X=17.7005 $Y=6.36
Ri77	Carry#1	Carry#2	0.193876	$mt1	$W=1.2e-07
+ $X=17.35 $Y=6.36
Ri78	Carry#2	Carry#4	0.681636	$mt1	$W=1.2e-07
+ $X=16.96 $Y=6.36
Ri80	Carry#4	Carry#7	1.556063	$mt1	$W=1.2e-07
+ $X=16.3605 $Y=4.9
Ri82	Carry#1	Carry#10	3.416669	$mt1	$W=1.2e-07
+ $X=17.5 $Y=4.33
Ri84	Carry#2	Carry#13	2.563336	$mt1	$W=1.2e-07
+ $X=17.2 $Y=7.48
Ri86	Carry#3	Carry#4	15.000000	$mt1	$W=1.2e-07
+ $X=16.72 $Y=5.76
Ri87	Carry#6	Carry#7	15.000000	$mt1	$W=1.2e-07
+ $X=16.18 $Y=3.86
Ri88	Carry#9	Carry#10	15.000000	$mt1	$W=1.2e-07
+ $X=16.72 $Y=1.86
Ri89	Carry#12	Carry#13	15.000000	$mt1	$W=1.2e-07
+ $X=16.18 $Y=7.86
Ri90	Sum	Sum#1	3.486335	$mt1	$W=1.2e-07
+ $X=15.8305 $Y=10.2
Ri91	Sum#1	Sum#2	1.715575	$mt1	$W=1.2e-07
+ $X=12.39 $Y=10.2
Ri92	Sum#2	Sum#3	1.343409	$mt1	$W=1.2e-07
+ $X=11.06 $Y=11.1
Ri93	Sum#3	Sum#5	3.569469	$mt1	$W=1.2e-07	$X=9.81 $Y=12.3
Ri95	Sum#1	Sum#8	0.393939	$mt1	$W=1.2e-07
+ $X=13.28 $Y=9.91
Ri97	Sum#2	Sum#11	1.521636	$mt1	$W=1.2e-07
+ $X=12.39 $Y=11.1
Ri99	Sum#3	Sum#14	0.570297	$mt1	$W=1.2e-07
+ $X=10.62 $Y=12.7
Ri101	Sum#4	Sum#5	15.000000	$mt1	$W=1.2e-07
+ $X=10.08 $Y=15.16
Ri102	Sum#7	Sum#8	15.000000	$mt1	$W=1.2e-07
+ $X=13.28 $Y=9.56
Ri103	Sum#10	Sum#11	15.000000	$mt1	$W=1.2e-07
+ $X=13.28 $Y=11.66
Ri104	Sum#13	Sum#14	15.000000	$mt1	$W=1.2e-07
+ $X=10.62 $Y=13.16
Ri106	GND#19	GND#21	0.598500	$mt1	$W=2.4e-07
+ $X=14.8255 $Y=1.86
Ri107	GND#21	GND	1.072550	$mt1	$W=1.2e-07	$X=13.9 $Y=1.02
Ri108	GND#21	GND#6	10.485884	$mt1	$W=1.2e-07	$X=13.9 $Y=2.26
Ri109	GND	GND#3	10.532308	$mt1	$W=1.3e-07
+ $X=9.655 $Y=0.6675
Ri110	GND	GND#25	0.907368	$mt1	$W=3.8e-07	$X=7.15 $Y=2.32
Ri113	GND	GND#28	2.223604	$mt1	$W=2.4e-07	$X=2.3 $Y=3.52
Ri114	GND#28	GND#29	1.046636	$mt1	$W=2.4e-07	$X=2.3 $Y=7.96
Ri116	GND#28	GND#31	0.373939	$mt1	$W=2.4e-07	$X=2.91 $Y=6.86
Ri117	GND#31	GND#32	0.043333	$mt1	$W=2.4e-07	$X=3.65 $Y=6.86
Ri118	GND#32	GND#33	15.043333	$mt1	$W=2.4e-07	$X=3.65 $Y=6.86
Ri119	GND#9	GND#19	15.000000	$mt1	$W=2.4e-07
+ $X=15.755 $Y=1.86
Ri120	GND#24	GND#25	15.000000	$mt1	$W=3.8e-07	$X=7.28 $Y=4.46
Ri121	GND#9	GND#25	15.000000	$mt1	$W=3.8e-07	$X=7.02 $Y=4.46
Ri122	GND#9	GND#29	15.000000	$mt1	$W=2.4e-07
+ $X=3.355 $Y=9.06
Ri123	GND#9	GND#31	15.000000	$mt1	$W=2.4e-07	$X=3.52 $Y=6.86
Ri128	VDD#6	VDD	1.575311	$mt1	$W=3.8e-07
+ $X=7.15 $Y=13.29
Ri133	VDD#6	VDD#14	0.756363	$mt1	$W=3.8e-07	$X=7.15 $Y=7.76
Ri145	VDD#13	VDD#14	15.000000	$mt1	$W=3.8e-07	$X=7.28 $Y=5.96
Rj1	A#1	A#2	77.160759	$poly	$W=1e-07	$X=4.44 $Y=11
Rj2	A#2	A#3	159.513367	$poly	$W=1e-07	$X=3.25 $Y=11
Rj3	A#3	A#4	81.338341	$poly	$W=1.2e-07
+ $X=1.96 $Y=10.96
Rj4	A#2	A#5	183.909073	$poly	$W=1e-07
+ $X=4.05 $Y=10.035
Rj5	A#3	A#6	86.604439	$poly	$W=1e-07
+ $X=2.45 $Y=11.475
Rj6	B#1	B#2	206.049683	$poly	$W=1e-07
+ $X=4.7005 $Y=12.76
Rj7	B#2	B#3	167.862579	$poly	$W=1.2e-07
+ $X=2.45 $Y=12.76
Rj8	B#2	B#4	38.715931	$poly	$W=2.4e-07	$X=3.5 $Y=12.39
Rj9	avC10	avC10#2	69.506592	$poly	$W=1e-07
+ $X=7.55 $Y=5.5805
Rj10	avC10#2	avC10#3	167.400772	$poly	$W=1.2e-07
+ $X=6.52 $Y=5.2
Rj11	avC10#2	avC10#4	67.506592	$poly	$W=1e-07
+ $X=7.55 $Y=4.83
Rj12	B#5	B#6	743.130859	$poly	$W=1e-07	$X=6.14 $Y=3.5
Rj13	B#6	B#7	568.451721	$poly	$W=1e-07
+ $X=2.7 $Y=8.4845
Rj14	GND#1	GND#2	63.886551	$poly	$W=2.4e-07
+ $X=8.9245 $Y=10.8
Rj15	GND#2	GND#3	739.684998	$poly	$W=1.3e-07
+ $X=9.655 $Y=5.95
Rj16	GND#2	GND#4	131.992599	$poly	$W=1.3e-07
+ $X=9.655 $Y=11.7
Rj17	C#1	C#2	787.587585	$poly	$W=1.2e-07	$X=5.8 $Y=16.36
Rj18	C#3	C#4	222.543533	$poly	$W=1e-07
+ $X=13.55 $Y=8.41
Rj19	C#4	C#5	198.000000	$poly	$W=1e-07
+ $X=13.55 $Y=10.6095
Rj20	C#5	C#6	334.774719	$poly	$W=1e-07
+ $X=13.55 $Y=13.4695
Rj21	GND#5	GND#6	301.646149	$poly	$W=1e-07	$X=13.9 $Y=4.19
Rj22	avC10#5	avC10#6	463.681183	$poly	$W=1e-07
+ $X=15.0955 $Y=6.8
Rj23	avC10#6	avC10#7	1055.681152	$poly	$W=1e-07
+ $X=14.5 $Y=11.505
Rj24	avC10#7	avC10#8	780.887451	$poly	$W=1e-07
+ $X=6.9905 $Y=16
Rj25	avC10#8	avC10#9	308.862732	$poly	$W=1e-07
+ $X=3.81 $Y=13.3
Rj26	avC10#5	avC10#10	178.000000	$poly	$W=1e-07
+ $X=16.45 $Y=4.8105
Rj27	avC10#6	avC10#11	23.234104	$poly	$W=1.2e-07
+ $X=14.335 $Y=8.6
Rj28	avC8	avC8#2	1159.967285	$poly	$W=1e-07
+ $X=11.7255 $Y=0.7
Rj29	avC8#2	avC8#3	522.050110	$poly	$W=1e-07
+ $X=10.35 $Y=7.98
Rj30	avC8#3	avC8#4	249.506592	$poly	$W=1e-07
+ $X=10.35 $Y=11.88
Rj31	avC8#3	avC8#5	127.400764	$poly	$W=1.2e-07
+ $X=11.14 $Y=10.6
Rj32	avC8#6	avC8#7	260.543549	$poly	$W=1e-07
+ $X=16.45 $Y=9.2095
*
*       CAPACITOR CARDS
*
*
C1	VDD	GND	3.3561e-15	$cmodel	$X=8.8 $Y=3.2385
C2	A	GND	6.46192e-17	$cmodel	$X=0.4655 $Y=10.889
C3	B	GND	6.67813e-17	$cmodel	$X=0.423 $Y=12.737
C4	C	GND	5.82362e-17	$cmodel	$X=0.2815 $Y=16.34
C5	Carry	GND	3.73048e-17	$cmodel	$X=17.8125 $Y=6.348
C6	Sum	GND	2.52414e-16	$cmodel	$X=17.221 $Y=9.753
C7	avC10	GND	6.82237e-17	$cmodel	$X=7.555 $Y=5.8695
C8	avC8	GND	6.12652e-16	$cmodel	$X=13.8725 $Y=0.6985
C9	A#6	GND	7.51896e-17	$cmodel	$X=2.479 $Y=11.786
C10	B#1	GND	1.65489e-16	$cmodel	$X=5.187 $Y=12.1545
C11	avC10#7	GND	9.81273e-16	$cmodel
+ $X=10.2705 $Y=14.363
C12	C#4	GND	2.11022e-16	$cmodel	$X=13.486 $Y=9.382
C13	avC10#10	GND	1.30387e-16	$cmodel
+ $X=16.3935 $Y=4.188
C14	avC8#6	GND	1.65366e-16	$cmodel	$X=16.375 $Y=8.337
C15	B#6	GND	6.13039e-16	$cmodel	$X=4.253 $Y=5.444
C16	A#5	GND	1.18691e-16	$cmodel	$X=4.087 $Y=9.36
C17	avC10#4	GND	6.57296e-17	$cmodel
+ $X=7.555 $Y=4.5095
C18	avC8#4	GND	1.5715e-16	$cmodel	$X=10.336 $Y=12.5255
C19	C#5	GND	2.61196e-16	$cmodel	$X=13.468 $Y=11.837
C20	avC10#5	GND	3.50628e-16	$cmodel
+ $X=16.2945 $Y=5.723
C21	C#2	GND	5.71875e-16	$cmodel	$X=2.498 $Y=15.7115
C22	A#4	GND	1.29231e-16	$cmodel	$X=1.6455 $Y=10.828
C23	B#3	GND	1.94984e-16	$cmodel	$X=1.7965 $Y=12.5715
C24	avC10#9	GND	2.75724e-16	$cmodel
+ $X=2.7345 $Y=12.943
C25	B#7	GND	4.09317e-16	$cmodel	$X=3.643 $Y=10.346
C26	B#4	GND	1.18959e-16	$cmodel	$X=3.6015 $Y=11.6975
C27	A#1	GND	1.27806e-16	$cmodel	$X=4.9345 $Y=10.987
C28	avC10#3	GND	3.2333e-16	$cmodel
+ $X=5.8215 $Y=5.654
C29	avC10#8	GND	6.51623e-16	$cmodel
+ $X=5.582 $Y=13.2265
C30	B#5	GND	6.90604e-16	$cmodel	$X=8.374 $Y=3.343
C31	avC8#2	GND	9.23688e-16	$cmodel	$X=10.0075 $Y=4.547
C32	C#1	GND	6.43646e-16	$cmodel	$X=9.3575 $Y=15.5795
C33	C#6	GND	2.58624e-16	$cmodel	$X=12.1285 $Y=13.5105
C34	avC8#5	GND	2.37876e-16	$cmodel	$X=11.9035 $Y=10.4385
C35	C#3	GND	2.97467e-16	$cmodel	$X=13.805 $Y=7.3175
C36	avC10#11	GND	1.10181e-16	$cmodel
+ $X=13.911 $Y=8.599
C37	avC8#7	GND	3.10875e-16	$cmodel	$X=15.9965 $Y=10.0755
C38	C#10	GND	2.1168e-18	$cmodel	$X=10.0745 $Y=13.1045
C39	Sum#13	GND	1.73192e-18	$cmodel	$X=10.612 $Y=13.1045
C40	B#12	GND	4.11948e-17	$cmodel	$X=2.9255 $Y=11.8825
C41	avC9#2	GND	9.63997e-17	$cmodel	$X=4.362 $Y=8.4975
C42	avC9#5	GND	1.13185e-16	$cmodel	$X=4.362 $Y=7.288
C43	A#9	GND	6.69953e-17	$cmodel	$X=4.898 $Y=11.7295
C44	avC10#14	GND	1.37407e-16	$cmodel
+ $X=5.461 $Y=11.7485
C45	avC10#16	GND	2.94025e-16	$cmodel
+ $X=5.527 $Y=9.16
C46	avC10#17	GND	2.26469e-16	$cmodel
+ $X=3.891 $Y=9.834
C47	avC10#19	GND	2.17884e-16	$cmodel
+ $X=2.302 $Y=11.2545
C48	avC10#23	GND	7.17411e-17	$cmodel
+ $X=3.8095 $Y=9.274
C49	avC8#9	GND	1.28824e-16	$cmodel	$X=8.489 $Y=5.234
C50	avC8#11	GND	5.78381e-17	$cmodel
+ $X=7.8245 $Y=4.6075
C51	avC8#14	GND	5.64142e-17	$cmodel
+ $X=7.8235 $Y=5.8205
C52	C#9	GND	1.33739e-16	$cmodel	$X=10.3305 $Y=13.6175
C53	C#11	GND	7.21661e-17	$cmodel	$X=10.0735 $Y=13.314
C54	C#14	GND	1.21247e-16	$cmodel	$X=10.603 $Y=14.9615
C55	avC10#28	GND	5.45887e-17	$cmodel
+ $X=13.7935 $Y=9.278
C56	avC8#17	GND	2.5528e-16	$cmodel
+ $X=13.7235 $Y=10.618
C57	avC8#20	GND	6.75473e-17	$cmodel
+ $X=13.7945 $Y=11.384
C58	C#18	GND	5.80381e-17	$cmodel	$X=16.691 $Y=7.714
C59	C#20	GND	2.16775e-16	$cmodel	$X=16.305 $Y=6.5745
C60	C#23	GND	1.11797e-16	$cmodel	$X=16.1175 $Y=6.152
C61	B#15	GND	7.79407e-17	$cmodel	$X=16.6675 $Y=3.5155
C62	B#17	GND	5.33237e-16	$cmodel	$X=15.2705 $Y=2.7125
C63	B#20	GND	6.42905e-17	$cmodel	$X=16.1455 $Y=2.043
C64	Carry#1	GND	1.63741e-16	$cmodel
+ $X=17.323 $Y=5.0525
C65	Carry#2	GND	2.031e-16	$cmodel
+ $X=16.81 $Y=6.253
C66	Carry#4	GND	1.15789e-16	$cmodel
+ $X=16.619 $Y=5.491
C67	Carry#7	GND	1.16849e-16	$cmodel
+ $X=16.1065 $Y=4.3125
C68	Carry#10	GND	2.48282e-16	$cmodel
+ $X=16.9335 $Y=2.2645
C69	Carry#13	GND	1.98994e-16	$cmodel
+ $X=16.5585 $Y=8.465
C70	Sum#1	GND	4.01496e-16	$cmodel	$X=14.4165 $Y=9.9145
C71	Sum#2	GND	3.02306e-16	$cmodel	$X=11.4335 $Y=10.39
C72	Sum#3	GND	3.65734e-16	$cmodel	$X=9.7845 $Y=11.9545
C73	Sum#5	GND	2.55836e-16	$cmodel	$X=9.527 $Y=14.1925
C74	Sum#8	GND	5.81397e-17	$cmodel	$X=13.264 $Y=9.6425
C75	Sum#11	GND	1.52691e-16	$cmodel	$X=13.2345 $Y=11.298
C76	Sum#14	GND	6.11749e-17	$cmodel	$X=10.612 $Y=12.9355
C77	VDD#6	GND	2.04937e-15	$cmodel	$X=10.2615 $Y=2.8455
C78	VDD#14	GND	1.64843e-16	$cmodel	$X=7.1795 $Y=6.1075
C79	A#2	GND	2.14504e-16	$cmodel	$X=4.1145 $Y=10.412
C80	A#3	GND	1.56471e-16	$cmodel	$X=2.945 $Y=10.88
C81	B#2	GND	2.34038e-16	$cmodel	$X=3.616 $Y=12.3505
C82	avC10#2	GND	1.65334e-16	$cmodel
+ $X=7.0335 $Y=5.145
C83	avC10#6	GND	6.78591e-16	$cmodel
+ $X=14.138 $Y=8.2275
C84	avC8#3	GND	4.54934e-16	$cmodel	$X=10.309 $Y=9.6515
*
*
.ENDS FA
*
