*
*
*
*                       LINUX           Fri Jun 21 20:55:58 2024
*
*
*
*  PROGRAM  advgen
*
*  Name           : advgen - Quantus - (64-bit)
*  Version        : 21.2.2-p045
*  Build Date     : Fri Sep 23 10:27:37 PDT 2022
*
*  HSPICE LIBRARY
*
*!LENGTH_UNITS METERS
*
*
*

*
.SUBCKT MUX_4_1 VDD GND A B C D S0 S1 Y
*
*
*  caps2d version: 10
*
*
*       TRANSISTOR CARDS
*
*
MI0/avD1_1	I0/avC9#6	S0#8	GND#40	GND#3
+ nmos1v#20ivpcell#20gpdk090	L=1e-07	W=1.2e-07
+ AD=6.96e-14	AS=6.96e-14	PD=1.16e-06	PS=1.16e-06	simW=1.2e-07 fw=1.2e-07
MI0/avD1_2	avC12#13	A#5	I0/avC7#4	GND#3
+ nmos1v#20ivpcell#20gpdk090	L=1e-07	W=1.2e-07
+ AD=6.96e-14	AS=6.96e-14	PD=1.16e-06	PS=1.16e-06	simW=1.2e-07 fw=1.2e-07
MI0/avD1_3	I0/avC7	I0/avC9	GND#34	GND#3
+ nmos1v#20ivpcell#20gpdk090	L=1e-07	W=1.2e-07
+ AD=6.96e-14	AS=6.96e-14	PD=1.16e-06	PS=1.16e-06	simW=1.2e-07 fw=1.2e-07
MI0/avD1_4	avC12#16	B#1	I0/avC8#4	GND#3
+ nmos1v#20ivpcell#20gpdk090	L=1e-07	W=1.2e-07
+ AD=6.96e-14	AS=6.96e-14	PD=1.16e-06	PS=1.16e-06	simW=1.2e-07 fw=1.2e-07
MI0/avD1_5	I0/avC8	S0#7	GND#28	GND#3
+ nmos1v#20ivpcell#20gpdk090	L=1e-07	W=1.2e-07
+ AD=6.96e-14	AS=6.96e-14	PD=1.16e-06	PS=1.16e-06	simW=1.2e-07 fw=1.2e-07
MI2/avD1_1	I2/avC9#6	S1#6	GND#24	GND#3
+ nmos1v#20ivpcell#20gpdk090	L=1e-07	W=1.2e-07
+ AD=6.96e-14	AS=6.96e-14	PD=1.16e-06	PS=1.16e-06	simW=1.2e-07 fw=1.2e-07
MI2/avD1_2	avC11#11	avC12#5	I2/avC7#4	GND#3
+ nmos1v#20ivpcell#20gpdk090	L=1e-07	W=1.2e-07
+ AD=6.96e-14	AS=6.96e-14	PD=1.16e-06	PS=1.16e-06	simW=1.2e-07 fw=1.2e-07
MI2/avD1_3	I2/avC7	I2/avC9	GND#18	GND#3
+ nmos1v#20ivpcell#20gpdk090	L=1e-07	W=1.2e-07
+ AD=6.96e-14	AS=6.96e-14	PD=1.16e-06	PS=1.16e-06	simW=1.2e-07 fw=1.2e-07
MI2/avD1_4	avC11#14	avC10#3	I2/avC8#4	GND#3
+ nmos1v#20ivpcell#20gpdk090	L=1e-07	W=1.2e-07
+ AD=6.96e-14	AS=6.96e-14	PD=1.16e-06	PS=1.16e-06	simW=1.2e-07 fw=1.2e-07
MI2/avD1_5	I2/avC8	S1#5	GND#12	GND#3
+ nmos1v#20ivpcell#20gpdk090	L=1e-07	W=1.2e-07
+ AD=6.96e-14	AS=6.96e-14	PD=1.16e-06	PS=1.16e-06	simW=1.2e-07 fw=1.2e-07
MI1/avD1_1	I1/avC9#6	S0#14	GND#56	GND#3
+ nmos1v#20ivpcell#20gpdk090	L=1e-07	W=1.2e-07
+ AD=6.96e-14	AS=6.96e-14	PD=1.16e-06	PS=1.16e-06	simW=1.2e-07 fw=1.2e-07
MI1/avD1_2	avC10#12	C#5	I1/avC7#4	GND#3
+ nmos1v#20ivpcell#20gpdk090	L=1e-07	W=1.2e-07
+ AD=6.96e-14	AS=6.96e-14	PD=1.16e-06	PS=1.16e-06	simW=1.2e-07 fw=1.2e-07
MI1/avD1_3	I1/avC7	I1/avC9	GND#50	GND#3
+ nmos1v#20ivpcell#20gpdk090	L=1e-07	W=1.2e-07
+ AD=6.96e-14	AS=6.96e-14	PD=1.16e-06	PS=1.16e-06	simW=1.2e-07 fw=1.2e-07
MI1/avD1_4	avC10#15	D#1	I1/avC8#4	GND#3
+ nmos1v#20ivpcell#20gpdk090	L=1e-07	W=1.2e-07
+ AD=6.96e-14	AS=6.96e-14	PD=1.16e-06	PS=1.16e-06	simW=1.2e-07 fw=1.2e-07
MI1/avD1_5	I1/avC8	S0#13	GND#44	GND#3
+ nmos1v#20ivpcell#20gpdk090	L=1e-07	W=1.2e-07
+ AD=6.96e-14	AS=6.96e-14	PD=1.16e-06	PS=1.16e-06	simW=1.2e-07 fw=1.2e-07
MI3/avD1_1	Y#3	avC11#4	GND#1	GND#3
+ nmos1v#20ivpcell#20gpdk090	L=1e-07	W=1.2e-07
+ AD=6.96e-14	AS=6.96e-14	PD=1.16e-06	PS=1.16e-06	simW=1.2e-07 fw=1.2e-07
MI0/avD7_1	I0/avC9#9	S0#11	VDD#73	VDD
+ pmos1v#20ivpcell#20gpdk090	L=1e-07	W=1.2e-07
+ AD=6.96e-14	AS=6.96e-14	PD=1.16e-06	PS=1.16e-06	simW=1.2e-07 fw=1.2e-07
MI0/avD7_2	I0/avC10#12	A#1	VDD#57	VDD
+ pmos1v#20ivpcell#20gpdk090	L=1e-07	W=1.2e-07
+ AD=6.96e-14	AS=6.96e-14	PD=1.16e-06	PS=1.16e-06	simW=1.2e-07 fw=1.2e-07
MI0/avD7_3	avC12#22	B#4	I0/avC10#6	VDD
+ pmos1v#20ivpcell#20gpdk090	L=1e-07	W=1.2e-07
+ AD=6.96e-14	AS=6.96e-14	PD=1.16e-06	PS=1.16e-06	simW=1.2e-07 fw=1.2e-07
MI0/avD7_4	I0/avC10#9	S0#3	avC12#19	VDD
+ pmos1v#20ivpcell#20gpdk090	L=1e-07	W=1.2e-07
+ AD=6.96e-14	AS=6.96e-14	PD=1.16e-06	PS=1.16e-06	simW=1.2e-07 fw=1.2e-07
MI0/avD7_5	I0/avC10	I0/avC9#3	VDD#47	VDD
+ pmos1v#20ivpcell#20gpdk090	L=1e-07	W=1.2e-07
+ AD=6.96e-14	AS=6.96e-14	PD=1.16e-06	PS=1.16e-06	simW=1.2e-07 fw=1.2e-07
MI2/avD7_1	I2/avC9#9	S1#9	VDD#35	VDD
+ pmos1v#20ivpcell#20gpdk090	L=1e-07	W=1.2e-07
+ AD=6.96e-14	AS=6.96e-14	PD=1.16e-06	PS=1.16e-06	simW=1.2e-07 fw=1.2e-07
MI2/avD7_2	I2/avC10#12	avC12	VDD#52	VDD
+ pmos1v#20ivpcell#20gpdk090	L=1e-07	W=1.2e-07
+ AD=6.96e-14	AS=6.96e-14	PD=1.16e-06	PS=1.16e-06	simW=1.2e-07 fw=1.2e-07
MI2/avD7_3	avC11#20	avC10#6	I2/avC10#6	VDD
+ pmos1v#20ivpcell#20gpdk090	L=1e-07	W=1.2e-07
+ AD=6.96e-14	AS=6.96e-14	PD=1.16e-06	PS=1.16e-06	simW=1.2e-07 fw=1.2e-07
MI2/avD7_4	I2/avC10#9	S1#3	avC11#17	VDD
+ pmos1v#20ivpcell#20gpdk090	L=1e-07	W=1.2e-07
+ AD=6.96e-14	AS=6.96e-14	PD=1.16e-06	PS=1.16e-06	simW=1.2e-07 fw=1.2e-07
MI2/avD7_5	I2/avC10	I2/avC9#3	VDD#62	VDD
+ pmos1v#20ivpcell#20gpdk090	L=1e-07	W=1.2e-07
+ AD=6.96e-14	AS=6.96e-14	PD=1.16e-06	PS=1.16e-06	simW=1.2e-07 fw=1.2e-07
MI1/avD7_1	I1/avC9#9	S0#17	VDD#21	VDD
+ pmos1v#20ivpcell#20gpdk090	L=1e-07	W=1.2e-07
+ AD=6.96e-14	AS=6.96e-14	PD=1.16e-06	PS=1.16e-06	simW=1.2e-07 fw=1.2e-07
MI1/avD7_2	I1/avC10#12	C#1	VDD#13	VDD
+ pmos1v#20ivpcell#20gpdk090	L=1e-07	W=1.2e-07
+ AD=6.96e-14	AS=6.96e-14	PD=1.16e-06	PS=1.16e-06	simW=1.2e-07 fw=1.2e-07
MI1/avD7_3	avC10#21	D#4	I1/avC10#6	VDD
+ pmos1v#20ivpcell#20gpdk090	L=1e-07	W=1.2e-07
+ AD=6.96e-14	AS=6.96e-14	PD=1.16e-06	PS=1.16e-06	simW=1.2e-07 fw=1.2e-07
MI1/avD7_4	I1/avC10#9	S0#5	avC10#18	VDD
+ pmos1v#20ivpcell#20gpdk090	L=1e-07	W=1.2e-07
+ AD=6.96e-14	AS=6.96e-14	PD=1.16e-06	PS=1.16e-06	simW=1.2e-07 fw=1.2e-07
MI1/avD7_5	I1/avC10	I1/avC9#3	VDD#8	VDD
+ pmos1v#20ivpcell#20gpdk090	L=1e-07	W=1.2e-07
+ AD=6.96e-14	AS=6.96e-14	PD=1.16e-06	PS=1.16e-06	simW=1.2e-07 fw=1.2e-07
MI3/avD7_1	Y#6	avC11	VDD#28	VDD	pmos1v#20ivpcell#20gpdk090
+ L=1e-07	W=1.2e-07
+ AD=6.96e-14	AS=6.96e-14	PD=1.16e-06	PS=1.16e-06
+ simW=1.2e-07 fw=1.2e-07
*
*
*       RESISTOR AND CAP/DIODE CARDS
*
Ri1	S1#2	S1	10.740000	$mt1	$W=1.2e-07	$X=0.63 $Y=0.86
Ri2	B#3	B#6	10.360000	$mt1	$W=1.2e-07
+ $X=1.7305 $Y=23.16
Ri3	B#6	B	1.189397	$mt1	$W=1.2e-07
+ $X=0.6 $Y=23.2445
Ri4	A#3	A#8	10.426666	$mt1	$W=1.2e-07
+ $X=1.7805 $Y=24.36
Ri5	A#8	A	1.189397	$mt1	$W=1.2e-07
+ $X=0.6355 $Y=24.36
Ri6	S0#10	S0#20	10.560000	$mt1	$W=1.2e-07
+ $X=1.7805 $Y=21.26
Ri7	S0#20	S0#1	18.911366	$mt1	$W=1.2e-07
+ $X=0.8 $Y=15.0505
Ri8	D#3	D#6	10.360000	$mt1	$W=1.2e-07
+ $X=2.1305 $Y=5.96
Ri9	D#6	D	1.456063	$mt1	$W=1.2e-07
+ $X=0.8 $Y=6.0445
Ri10	C#3	C#8	10.426666	$mt1	$W=1.2e-07
+ $X=2.1805 $Y=7.16
Ri11	C#8	C	1.389397	$mt1	$W=1.2e-07
+ $X=0.8855 $Y=7.16
Ri12	S0#16	S0#23	10.560000	$mt1	$W=1.2e-07
+ $X=2.1805 $Y=4.06
Ri13	S0#23	S0#2	0.625213	$mt1	$W=1.2e-07
+ $X=1.2805 $Y=4.06
Ri14	S0#2	S0	1.071365	$mt1	$W=1.2e-07	$X=0.8 $Y=3.53
Ri15	A#4	A#6	21.200001	$mt1	$W=1.2e-07
+ $X=3.9 $Y=23.0005
Ri16	I0/avC9#2	I0/avC9#7	10.791365	$mt1	$W=1.2e-07
+ $X=3.5705 $Y=20.2
Ri18	I0/avC9#7	I0/avC9#10	0.866667	$mt1	$W=1.2e-07
+ $X=3.32 $Y=21.3095
Ri20	I0/avC9#10	I0/avC9#4	12.093333	$mt1	$W=1.2e-07
+ $X=3.32 $Y=23.5595
Ri21	I0/avC9#6	I0/avC9#7	15.000000	$mt1	$W=1.2e-07
+ $X=3.32 $Y=20.66
Ri22	I0/avC9#9	I0/avC9#10	15.000000	$mt1	$W=1.2e-07
+ $X=3.32 $Y=21.96
Ri23	S0#4	S0#12	21.333332	$mt1	$W=1.2e-07
+ $X=4.3 $Y=22.3005
Ri24	C#4	C#6	21.200001	$mt1	$W=1.2e-07
+ $X=4.3 $Y=5.8005
Ri25	I1/avC9#2	I1/avC9#7	10.791365	$mt1	$W=1.2e-07
+ $X=3.9705 $Y=3
Ri27	I1/avC9#7	I1/avC9#10	0.866667	$mt1	$W=1.2e-07
+ $X=3.72 $Y=4.1095
Ri29	I1/avC9#10	I1/avC9#4	12.093333	$mt1	$W=1.2e-07
+ $X=3.72 $Y=6.3595
Ri30	I1/avC9#6	I1/avC9#7	15.000000	$mt1	$W=1.2e-07
+ $X=3.72 $Y=3.46
Ri31	I1/avC9#9	I1/avC9#10	15.000000	$mt1	$W=1.2e-07
+ $X=3.72 $Y=4.76
Ri32	S0#6	S0#18	21.333332	$mt1	$W=1.2e-07
+ $X=4.7 $Y=5.1005
Ri34	I0/avC7#2	I0/avC7#5	1.156063	$mt1	$W=1.2e-07
+ $X=5.9405 $Y=20.8
Ri36	I0/avC7	I0/avC7#2	15.000000	$mt1	$W=1.2e-07
+ $X=6.42 $Y=20.36
Ri37	I0/avC7#4	I0/avC7#5	15.000000	$mt1	$W=1.2e-07
+ $X=5.88 $Y=21.66
Ri39	I1/avC7#2	I1/avC7#5	1.156063	$mt1	$W=1.2e-07
+ $X=6.3405 $Y=3.6
Ri41	I1/avC7	I1/avC7#2	15.000000	$mt1	$W=1.2e-07
+ $X=6.82 $Y=3.16
Ri42	I1/avC7#4	I1/avC7#5	15.000000	$mt1	$W=1.2e-07
+ $X=6.28 $Y=4.46
Ri44	I0/avC10#2	I0/avC10#4	0.541636	$mt1	$W=1.2e-07
+ $X=9.1555 $Y=24
Ri45	I0/avC10#4	I0/avC10#5	1.587209	$mt1	$W=1.2e-07
+ $X=7.615 $Y=24
Ri46	I0/avC10#5	I0/avC10#7	0.948303	$mt1	$W=1.2e-07
+ $X=6.15 $Y=24
Ri48	I0/avC10#4	I0/avC10#10	0.593939	$mt1	$W=1.2e-07
+ $X=8.81 $Y=23.56
Ri50	I0/avC10#5	I0/avC10#13	0.273939	$mt1	$W=1.2e-07
+ $X=6.42 $Y=24.2
Ri52	I0/avC10	I0/avC10#2	15.000000	$mt1	$W=1.2e-07
+ $X=9.22 $Y=24.46
Ri53	I0/avC10#6	I0/avC10#7	15.000000	$mt1	$W=1.2e-07
+ $X=5.88 $Y=23.06
Ri54	I0/avC10#9	I0/avC10#10	15.000000	$mt1	$W=1.2e-07
+ $X=8.81 $Y=23.06
Ri55	I0/avC10#12	I0/avC10#13	15.000000	$mt1	$W=1.2e-07
+ $X=6.42 $Y=24.46
Ri57	I0/avC8#2	I0/avC8#5	1.156063	$mt1	$W=1.2e-07
+ $X=8.7405 $Y=20.8
Ri59	I0/avC8	I0/avC8#2	15.000000	$mt1	$W=1.2e-07
+ $X=9.22 $Y=20.36
Ri60	I0/avC8#4	I0/avC8#5	15.000000	$mt1	$W=1.2e-07
+ $X=8.68 $Y=21.66
Ri62	I1/avC10#2	I1/avC10#4	0.541636	$mt1	$W=1.2e-07
+ $X=9.5555 $Y=6.8
Ri63	I1/avC10#4	I1/avC10#5	1.587209	$mt1	$W=1.2e-07
+ $X=8.015 $Y=6.8
Ri64	I1/avC10#5	I1/avC10#7	0.948303	$mt1	$W=1.2e-07
+ $X=6.55 $Y=6.8
Ri66	I1/avC10#4	I1/avC10#10	0.593939	$mt1	$W=1.2e-07
+ $X=9.21 $Y=6.36
Ri68	I1/avC10#5	I1/avC10#13	0.273939	$mt1	$W=1.2e-07
+ $X=6.82 $Y=7
Ri70	I1/avC10	I1/avC10#2	15.000000	$mt1	$W=1.2e-07
+ $X=9.62 $Y=7.26
Ri71	I1/avC10#6	I1/avC10#7	15.000000	$mt1	$W=1.2e-07
+ $X=6.28 $Y=5.86
Ri72	I1/avC10#9	I1/avC10#10	15.000000	$mt1	$W=1.2e-07
+ $X=9.21 $Y=5.86
Ri73	I1/avC10#12	I1/avC10#13	15.000000	$mt1	$W=1.2e-07
+ $X=6.82 $Y=7.26
Ri75	I1/avC8#2	I1/avC8#5	1.156063	$mt1	$W=1.2e-07
+ $X=9.1405 $Y=3.6
Ri77	I1/avC8	I1/avC8#2	15.000000	$mt1	$W=1.2e-07
+ $X=9.62 $Y=3.16
Ri78	I1/avC8#4	I1/avC8#5	15.000000	$mt1	$W=1.2e-07
+ $X=9.08 $Y=4.46
Ri79	avC10	avC10#8	12.091365	$mt1	$W=1.2e-07
+ $X=11.4 $Y=6.0605
Ri80	avC10#8	avC10#9	0.683604	$mt1	$W=1.2e-07
+ $X=10.1405 $Y=5.16
Ri81	avC10#9	avC10#10	0.627209	$mt1	$W=1.2e-07
+ $X=9.145 $Y=5.16
Ri82	avC10#10	avC10#11	1.197544	$mt1	$W=1.2e-07
+ $X=7.745 $Y=5.16
Ri83	avC10#11	avC10#13	0.463604	$mt1	$W=1.2e-07
+ $X=6.82 $Y=4.84
Ri85	avC10#9	avC10#16	0.433939	$mt1	$W=1.2e-07
+ $X=9.62 $Y=4.84
Ri87	avC10#10	avC10#19	0.433939	$mt1	$W=1.2e-07
+ $X=8.67 $Y=5.48
Ri89	avC10#11	avC10#22	0.463604	$mt1	$W=1.2e-07
+ $X=6.82 $Y=5.48
Ri91	avC10#12	avC10#13	15.000000	$mt1	$W=1.2e-07
+ $X=6.82 $Y=4.46
Ri92	avC10#15	avC10#16	15.000000	$mt1	$W=1.2e-07
+ $X=9.62 $Y=4.46
Ri93	avC10#18	avC10#19	15.000000	$mt1	$W=1.2e-07
+ $X=8.67 $Y=5.86
Ri94	avC10#21	avC10#22	15.000000	$mt1	$W=1.2e-07
+ $X=6.82 $Y=5.86
Ri95	avC10#5	avC10#25	10.360000	$mt1	$W=1.2e-07
+ $X=11.7305 $Y=15.86
Ri96	avC10#25	avC10#2	10.420000	$mt1	$W=1.2e-07
+ $X=11.1305 $Y=15.86
Ri97	avC12#3	avC12#8	10.426666	$mt1	$W=1.2e-07
+ $X=11.7805 $Y=17.06
Ri98	avC12#8	avC12#9	4.269397	$mt1	$W=1.2e-07
+ $X=10.8 $Y=19.6595
Ri99	avC12#9	avC12#10	0.683604	$mt1	$W=1.2e-07
+ $X=9.7405 $Y=22.36
Ri100	avC12#10	avC12#11	0.627209	$mt1	$W=1.2e-07
+ $X=8.745 $Y=22.36
Ri101	avC12#11	avC12#12	1.197544	$mt1	$W=1.2e-07
+ $X=7.345 $Y=22.36
Ri102	avC12#12	avC12#14	0.463604	$mt1	$W=1.2e-07
+ $X=6.42 $Y=22.04
Ri104	avC12#10	avC12#17	0.433939	$mt1	$W=1.2e-07
+ $X=9.22 $Y=22.04
Ri106	avC12#11	avC12#20	0.433939	$mt1	$W=1.2e-07
+ $X=8.27 $Y=22.68
Ri108	avC12#12	avC12#23	0.463604	$mt1	$W=1.2e-07
+ $X=6.42 $Y=22.68
Ri110	avC12#13	avC12#14	15.000000	$mt1	$W=1.2e-07
+ $X=6.42 $Y=21.66
Ri111	avC12#16	avC12#17	15.000000	$mt1	$W=1.2e-07
+ $X=9.22 $Y=21.66
Ri112	avC12#19	avC12#20	15.000000	$mt1	$W=1.2e-07
+ $X=8.27 $Y=23.06
Ri113	avC12#22	avC12#23	15.000000	$mt1	$W=1.2e-07
+ $X=6.42 $Y=23.06
Ri114	S1#8	S1#13	10.560000	$mt1	$W=1.2e-07
+ $X=11.7985 $Y=13.96
Ri115	S1#13	S1#1	10.773334	$mt1	$W=1.2e-07
+ $X=11.3 $Y=13.38
Ri116	avC12#4	avC12#6	21.200001	$mt1	$W=1.2e-07
+ $X=13.9 $Y=15.7005
Ri117	I2/avC9#2	I2/avC9#7	10.791365	$mt1	$W=1.2e-07
+ $X=13.5705 $Y=12.9
Ri119	I2/avC9#7	I2/avC9#10	0.866667	$mt1	$W=1.2e-07
+ $X=13.32 $Y=14.0095
Ri121	I2/avC9#10	I2/avC9#4	12.093333	$mt1	$W=1.2e-07
+ $X=13.32 $Y=16.2595
Ri122	I2/avC9#6	I2/avC9#7	15.000000	$mt1	$W=1.2e-07
+ $X=13.32 $Y=13.36
Ri123	I2/avC9#9	I2/avC9#10	15.000000	$mt1	$W=1.2e-07
+ $X=13.32 $Y=14.66
Ri124	S1#4	S1#10	21.333332	$mt1	$W=1.2e-07
+ $X=14.3 $Y=15.0005
Ri126	I2/avC7#2	I2/avC7#5	1.156063	$mt1	$W=1.2e-07
+ $X=15.9405 $Y=13.5
Ri128	I2/avC7	I2/avC7#2	15.000000	$mt1	$W=1.2e-07
+ $X=16.42 $Y=13.06
Ri129	I2/avC7#4	I2/avC7#5	15.000000	$mt1	$W=1.2e-07
+ $X=15.88 $Y=14.36
Ri131	I2/avC10#2	I2/avC10#4	0.541636	$mt1	$W=1.2e-07
+ $X=19.1555 $Y=16.7
Ri132	I2/avC10#4	I2/avC10#5	1.587209	$mt1	$W=1.2e-07
+ $X=17.615 $Y=16.7
Ri133	I2/avC10#5	I2/avC10#7	0.948303	$mt1	$W=1.2e-07
+ $X=16.15 $Y=16.7
Ri135	I2/avC10#4	I2/avC10#10	0.593939	$mt1	$W=1.2e-07
+ $X=18.81 $Y=16.26
Ri137	I2/avC10#5	I2/avC10#13	0.273939	$mt1	$W=1.2e-07
+ $X=16.42 $Y=16.9
Ri139	I2/avC10	I2/avC10#2	15.000000	$mt1	$W=1.2e-07
+ $X=19.22 $Y=17.16
Ri140	I2/avC10#6	I2/avC10#7	15.000000	$mt1	$W=1.2e-07
+ $X=15.88 $Y=15.76
Ri141	I2/avC10#9	I2/avC10#10	15.000000	$mt1	$W=1.2e-07
+ $X=18.81 $Y=15.76
Ri142	I2/avC10#12	I2/avC10#13	15.000000	$mt1	$W=1.2e-07
+ $X=16.42 $Y=17.16
Ri144	I2/avC8#2	I2/avC8#5	1.156063	$mt1	$W=1.2e-07
+ $X=18.7405 $Y=13.5
Ri146	I2/avC8	I2/avC8#2	15.000000	$mt1	$W=1.2e-07
+ $X=19.22 $Y=13.06
Ri147	I2/avC8#4	I2/avC8#5	15.000000	$mt1	$W=1.2e-07
+ $X=18.68 $Y=14.36
Ri148	VDD#2	VDD#4	22.271366	$mt1	$W=1.2e-07
+ $X=17.6085 $Y=8.54
Ri151	VDD#4	VDD#9	0.269474	$mt1	$W=3.8e-07	$X=8.95 $Y=7.93
Ri154	VDD#4	VDD#14	0.269474	$mt1	$W=3.8e-07	$X=6.15 $Y=7.93
Ri159	VDD#4	VDD#22	0.795789	$mt1	$W=3.8e-07	$X=3.05 $Y=6.68
Ri163	VDD#8	VDD#9	15.000000	$mt1	$W=3.8e-07	$X=9.08 $Y=7.26
Ri165	VDD#13	VDD#14	15.000000	$mt1	$W=3.8e-07	$X=6.28 $Y=7.26
Ri168	VDD#21	VDD#22	15.000000	$mt1	$W=3.8e-07	$X=3.18 $Y=4.76
Ri170	avC11#3	avC11#6	10.426666	$mt1	$W=1.2e-07
+ $X=24.1805 $Y=15.06
Ri171	avC11#6	avC11#7	2.406667	$mt1	$W=1.2e-07
+ $X=22.0505 $Y=15.06
Ri172	avC11#7	avC11#8	0.683604	$mt1	$W=1.2e-07
+ $X=19.7405 $Y=15.06
Ri173	avC11#8	avC11#9	0.627209	$mt1	$W=1.2e-07
+ $X=18.745 $Y=15.06
Ri174	avC11#9	avC11#10	1.197544	$mt1	$W=1.2e-07
+ $X=17.345 $Y=15.06
Ri175	avC11#10	avC11#12	0.463604	$mt1	$W=1.2e-07
+ $X=16.42 $Y=14.74
Ri177	avC11#8	avC11#15	0.433939	$mt1	$W=1.2e-07
+ $X=19.22 $Y=14.74
Ri179	avC11#9	avC11#18	0.433939	$mt1	$W=1.2e-07
+ $X=18.27 $Y=15.38
Ri181	avC11#10	avC11#21	0.463604	$mt1	$W=1.2e-07
+ $X=16.42 $Y=15.38
Ri183	avC11#11	avC11#12	15.000000	$mt1	$W=1.2e-07
+ $X=16.42 $Y=14.36
Ri184	avC11#14	avC11#15	15.000000	$mt1	$W=1.2e-07
+ $X=19.22 $Y=14.36
Ri185	avC11#17	avC11#18	15.000000	$mt1	$W=1.2e-07
+ $X=18.27 $Y=15.76
Ri186	avC11#20	avC11#21	15.000000	$mt1	$W=1.2e-07
+ $X=16.42 $Y=15.76
Ri187	Y	Y#1	1.196063	$mt1	$W=1.2e-07
+ $X=26.9 $Y=15.1705
Ri188	Y#1	Y#2	0.393939	$mt1	$W=1.2e-07
+ $X=25.7405 $Y=15.06
Ri189	Y#2	Y#4	0.330271	$mt1	$W=1.2e-07
+ $X=25.42 $Y=14.84
Ri191	Y#2	Y#7	0.463604	$mt1	$W=1.2e-07
+ $X=25.42 $Y=15.38
Ri193	Y#3	Y#4	15.000000	$mt1	$W=1.2e-07
+ $X=25.42 $Y=14.56
Ri194	Y#6	Y#7	15.000000	$mt1	$W=1.2e-07
+ $X=25.42 $Y=15.76
Ri196	VDD#27	VDD#29	0.134737	$mt1	$W=3.8e-07
+ $X=24.75 $Y=16.09
Ri199	VDD#27	VDD#1	11.288696	$mt1	$W=1.2e-07
+ $X=22.995 $Y=16.4
Ri200	VDD#27	VDD	4.465786	$mt1	$W=2e-07
+ $X=23.83 $Y=21.99
Ri201	VDD	VDD#34	6.066667	$mt1	$W=1.2e-07
+ $X=11.325 $Y=22.99
Ri202	VDD#34	VDD#36	0.795789	$mt1	$W=3.8e-07
+ $X=12.65 $Y=16.58
Ri205	VDD	VDD#40	1.200000	$mt1	$W=1.2e-07
+ $X=10.27 $Y=26.64
Ri210	VDD#40	VDD#48	0.269474	$mt1	$W=3.8e-07
+ $X=8.55 $Y=25.13
Ri213	VDD#34	VDD#53	0.269474	$mt1	$W=3.8e-07
+ $X=15.75 $Y=17.83
Ri216	VDD#40	VDD#58	0.269474	$mt1	$W=3.8e-07
+ $X=5.75 $Y=25.13
Ri219	VDD#34	VDD#63	0.269474	$mt1	$W=3.8e-07
+ $X=18.55 $Y=17.83
Ri226	VDD#40	VDD#74	0.795789	$mt1	$W=3.8e-07
+ $X=2.65 $Y=23.88
Ri229	VDD#28	VDD#29	15.000000	$mt1	$W=3.8e-07
+ $X=24.88 $Y=15.76
Ri231	VDD#35	VDD#36	15.000000	$mt1	$W=3.8e-07
+ $X=12.78 $Y=14.66
Ri235	VDD#47	VDD#48	15.000000	$mt1	$W=3.8e-07
+ $X=8.68 $Y=24.46
Ri237	VDD#52	VDD#53	15.000000	$mt1	$W=3.8e-07
+ $X=15.88 $Y=17.16
Ri239	VDD#57	VDD#58	15.000000	$mt1	$W=3.8e-07
+ $X=5.88 $Y=24.46
Ri241	VDD#62	VDD#63	15.000000	$mt1	$W=3.8e-07
+ $X=18.68 $Y=17.16
Ri245	VDD#73	VDD#74	15.000000	$mt1	$W=3.8e-07
+ $X=2.78 $Y=21.96
Ri249	GND#2	GND#6	0.160000	$mt1	$W=3.8e-07
+ $X=24.75 $Y=14.1705
Ri250	GND#6	GND#7	0.814588	$mt1	$W=2e-07
+ $X=23.805 $Y=12.76
Ri251	GND#7	GND	4.678588	$mt1	$W=2e-07
+ $X=23.805 $Y=5.91
Ri252	GND	GND#8	2.066938	$mt1	$W=1.2e-07
+ $X=10.898 $Y=0.06
Ri253	GND#8	GND	3.606605	$mt1	$W=1.2e-07
+ $X=10.5975 $Y=0.06
Ri254	GND#7	GND#9	5.290771	$mt1	$W=1.2e-07
+ $X=22.02 $Y=11.76
Ri255	GND#9	GND#10	8.501366	$mt1	$W=1.2e-07
+ $X=10.295 $Y=14.9365
Ri256	GND#8	GND#11	1.167273	$mt1	$W=1.2e-07
+ $X=10.695 $Y=0.96
Ri257	GND#9	GND#13	0.273684	$mt1	$W=3.8e-07
+ $X=18.55 $Y=12.38
Ri260	GND#9	GND#16	1.932474	$mt1	$W=1.3e-07
+ $X=17.6 $Y=12.7275
Ri262	GND#9	GND#19	0.273684	$mt1	$W=3.8e-07
+ $X=15.75 $Y=12.38
Ri265	GND#9	GND#22	1.932474	$mt1	$W=1.3e-07
+ $X=14.8 $Y=12.7275
Ri267	GND#9	GND#25	0.336842	$mt1	$W=3.8e-07
+ $X=12.65 $Y=12.53
Ri270	GND#10	GND#29	0.273684	$mt1	$W=3.8e-07
+ $X=8.55 $Y=19.68
Ri273	GND#10	GND#32	1.932474	$mt1	$W=1.3e-07
+ $X=7.6 $Y=20.0275
Ri275	GND#10	GND#35	0.273684	$mt1	$W=3.8e-07
+ $X=5.75 $Y=19.68
Ri278	GND#10	GND#38	1.932474	$mt1	$W=1.3e-07
+ $X=4.8 $Y=20.0275
Ri280	GND#10	GND#41	0.336842	$mt1	$W=3.8e-07
+ $X=2.65 $Y=19.83
Ri283	GND#11	GND#45	0.273684	$mt1	$W=3.8e-07	$X=8.95 $Y=2.48
Ri286	GND#11	GND#48	1.932474	$mt1	$W=1.3e-07	$X=8 $Y=2.8275
Ri288	GND#11	GND#51	0.273684	$mt1	$W=3.8e-07	$X=6.15 $Y=2.48
Ri291	GND#11	GND#54	1.932474	$mt1	$W=1.3e-07
+ $X=5.2 $Y=2.8275
Ri293	GND#11	GND#57	0.336842	$mt1	$W=3.8e-07	$X=3.05 $Y=2.63
Ri296	GND#1	GND#2	15.000000	$mt1	$W=3.8e-07
+ $X=24.88 $Y=14.56
Ri297	GND#3	GND#2	15.000000	$mt1	$W=3.8e-07
+ $X=24.62 $Y=14.56
Ri298	GND#12	GND#13	15.000000	$mt1	$W=3.8e-07
+ $X=18.68 $Y=13.06
Ri299	GND#3	GND#13	15.000000	$mt1	$W=3.8e-07
+ $X=18.42 $Y=13.06
Ri300	GND#3	GND#16	15.000000	$mt1	$W=1.3e-07
+ $X=18.255 $Y=14.36
Ri301	GND#18	GND#19	15.000000	$mt1	$W=3.8e-07
+ $X=15.88 $Y=13.06
Ri302	GND#3	GND#19	15.000000	$mt1	$W=3.8e-07
+ $X=15.62 $Y=13.06
Ri303	GND#3	GND#22	15.000000	$mt1	$W=1.3e-07
+ $X=15.455 $Y=14.36
Ri304	GND#24	GND#25	15.000000	$mt1	$W=3.8e-07
+ $X=12.78 $Y=13.36
Ri305	GND#3	GND#25	15.000000	$mt1	$W=3.8e-07
+ $X=12.52 $Y=13.36
Ri306	GND#28	GND#29	15.000000	$mt1	$W=3.8e-07
+ $X=8.68 $Y=20.36
Ri307	GND#3	GND#29	15.000000	$mt1	$W=3.8e-07
+ $X=8.42 $Y=20.36
Ri308	GND#3	GND#32	15.000000	$mt1	$W=1.3e-07
+ $X=8.255 $Y=21.66
Ri309	GND#34	GND#35	15.000000	$mt1	$W=3.8e-07
+ $X=5.88 $Y=20.36
Ri310	GND#3	GND#35	15.000000	$mt1	$W=3.8e-07
+ $X=5.62 $Y=20.36
Ri311	GND#3	GND#38	15.000000	$mt1	$W=1.3e-07
+ $X=5.455 $Y=21.66
Ri312	GND#40	GND#41	15.000000	$mt1	$W=3.8e-07
+ $X=2.78 $Y=20.66
Ri313	GND#3	GND#41	15.000000	$mt1	$W=3.8e-07
+ $X=2.52 $Y=20.66
Ri314	GND#44	GND#45	15.000000	$mt1	$W=3.8e-07	$X=9.08 $Y=3.16
Ri315	GND#3	GND#45	15.000000	$mt1	$W=3.8e-07	$X=8.82 $Y=3.16
Ri316	GND#3	GND#48	15.000000	$mt1	$W=1.3e-07
+ $X=8.655 $Y=4.46
Ri317	GND#50	GND#51	15.000000	$mt1	$W=3.8e-07	$X=6.28 $Y=3.16
Ri318	GND#3	GND#51	15.000000	$mt1	$W=3.8e-07	$X=6.02 $Y=3.16
Ri319	GND#3	GND#54	15.000000	$mt1	$W=1.3e-07
+ $X=5.855 $Y=4.46
Ri320	GND#56	GND#57	15.000000	$mt1	$W=3.8e-07	$X=3.18 $Y=3.46
Ri321	GND#3	GND#57	15.000000	$mt1	$W=3.8e-07	$X=2.92 $Y=3.46
Rj1	S0#1	S0#2	364.254272	$poly	$W=1.2e-07	$X=0.8 $Y=6.2
Rj2	A#1	A#2	262.316101	$poly	$W=1e-07
+ $X=5.1355 $Y=23.9
Rj3	A#2	A#3	143.500534	$poly	$W=1.2e-07
+ $X=3.035 $Y=24.36
Rj4	A#2	A#4	34.066101	$poly	$W=1e-07	$X=3.9 $Y=24.16
Rj5	A#5	A#6	251.130829	$poly	$W=1e-07
+ $X=5.2155 $Y=22.1
Rj6	I0/avC9	I0/avC9#2	286.718109	$poly	$W=1e-07
+ $X=5.0655 $Y=20.8
Rj7	C#1	C#2	262.316101	$poly	$W=1e-07
+ $X=5.5355 $Y=6.7
Rj8	C#2	C#3	143.500534	$poly	$W=1.2e-07
+ $X=3.435 $Y=7.16
Rj9	C#2	C#4	34.066101	$poly	$W=1e-07	$X=4.3 $Y=6.96
Rj10	C#5	C#6	251.130829	$poly	$W=1e-07
+ $X=5.6155 $Y=4.9
Rj11	I1/avC9	I1/avC9#2	286.718109	$poly	$W=1e-07
+ $X=5.4655 $Y=3.6
Rj12	S0#3	S0#4	485.718079	$poly	$W=1e-07
+ $X=6.5605 $Y=23.6
Rj13	S0#5	S0#6	485.718079	$poly	$W=1e-07
+ $X=6.9605 $Y=6.4
Rj14	I0/avC9#3	I0/avC9#4	516.441345	$poly	$W=1e-07
+ $X=6.4305 $Y=25.1
Rj15	B#1	B#2	316.520966	$poly	$W=1e-07
+ $X=7.9605 $Y=22.6
Rj16	B#2	B#3	381.587830	$poly	$W=1.2e-07	$X=4.08 $Y=22.6
Rj17	B#2	B#4	35.522564	$poly	$W=1e-07
+ $X=6.15 $Y=22.83
Rj18	S0#7	S0#8	751.174622	$poly	$W=1e-07
+ $X=5.8505 $Y=19.6
Rj19	S0#8	S0#9	54.373360	$poly	$W=1e-07
+ $X=3.05 $Y=20.9595
Rj20	S0#9	S0#10	64.425346	$poly	$W=1.2e-07
+ $X=2.66 $Y=21.26
Rj21	S0#9	S0#11	61.373356	$poly	$W=1e-07
+ $X=3.05 $Y=21.625
Rj22	S0#9	S0#12	117.193344	$poly	$W=1e-07	$X=3.64 $Y=21.3
Rj23	I1/avC9#3	I1/avC9#4	516.441345	$poly	$W=1e-07
+ $X=6.8305 $Y=7.9
Rj24	D#1	D#2	316.520966	$poly	$W=1e-07
+ $X=8.3605 $Y=5.4
Rj25	D#2	D#3	381.587830	$poly	$W=1.2e-07	$X=4.48 $Y=5.4
Rj26	D#2	D#4	35.522564	$poly	$W=1e-07	$X=6.55 $Y=5.63
Rj27	S0#13	S0#14	751.174622	$poly	$W=1e-07
+ $X=6.2505 $Y=2.4
Rj28	S0#14	S0#15	54.373360	$poly	$W=1e-07
+ $X=3.45 $Y=3.7595
Rj29	S0#15	S0#16	64.425346	$poly	$W=1.2e-07	$X=3.06 $Y=4.06
Rj30	S0#15	S0#17	61.373356	$poly	$W=1e-07
+ $X=3.45 $Y=4.425
Rj31	S0#15	S0#18	117.193344	$poly	$W=1e-07	$X=4.04 $Y=4.1
Rj32	avC10	avC10#2	1049.349487	$poly	$W=1.2e-07
+ $X=11.4 $Y=8.78
Rj33	S1#1	S1#2	1949.349487	$poly	$W=1.2e-07
+ $X=11.3 $Y=12.57
Rj34	avC12	avC12#2	262.316101	$poly	$W=1e-07
+ $X=15.1355 $Y=16.6
Rj35	avC12#2	avC12#3	143.500534	$poly	$W=1.2e-07
+ $X=13.035 $Y=17.06
Rj36	avC12#2	avC12#4	34.066101	$poly	$W=1e-07
+ $X=13.9 $Y=16.86
Rj37	avC12#5	avC12#6	251.130829	$poly	$W=1e-07
+ $X=15.2155 $Y=14.8
Rj38	I2/avC9	I2/avC9#2	286.718109	$poly	$W=1e-07
+ $X=15.0655 $Y=13.5
Rj39	S1#3	S1#4	485.718079	$poly	$W=1e-07
+ $X=16.5605 $Y=16.3
Rj40	I2/avC9#3	I2/avC9#4	516.441345	$poly	$W=1e-07
+ $X=16.4305 $Y=17.8
Rj41	avC10#3	avC10#4	316.520966	$poly	$W=1e-07
+ $X=17.9605 $Y=15.3
Rj42	avC10#4	avC10#5	381.587830	$poly	$W=1.2e-07
+ $X=14.08 $Y=15.3
Rj43	avC10#4	avC10#6	35.522564	$poly	$W=1e-07
+ $X=16.15 $Y=15.53
Rj44	S1#5	S1#6	751.174622	$poly	$W=1e-07
+ $X=15.8505 $Y=12.3
Rj45	S1#6	S1#7	54.373360	$poly	$W=1e-07
+ $X=13.05 $Y=13.6595
Rj46	S1#7	S1#8	64.425346	$poly	$W=1.2e-07
+ $X=12.66 $Y=13.96
Rj47	S1#7	S1#9	61.373356	$poly	$W=1e-07
+ $X=13.05 $Y=14.325
Rj48	S1#7	S1#10	117.193344	$poly	$W=1e-07	$X=13.64 $Y=14
Rj49	VDD#1	VDD#2	525.646179	$poly	$W=1e-07
+ $X=22.2 $Y=13.69
Rj50	avC11	avC11#2	63.506596	$poly	$W=1e-07
+ $X=25.15 $Y=15.4105
Rj51	avC11#2	avC11#3	44.067440	$poly	$W=1.2e-07
+ $X=24.86 $Y=15.06
Rj52	avC11#2	avC11#4	43.506592	$poly	$W=1e-07
+ $X=25.15 $Y=14.81
*
*       CAPACITOR CARDS
*
*
C1	VDD	GND	3.60836e-15	$cmodel	$X=14.434 $Y=2.1265
C2	A	GND	1.07049e-16	$cmodel	$X=0.824 $Y=24.0705
C3	B	GND	9.26235e-17	$cmodel	$X=0.565 $Y=23.191
C4	C	GND	1.20205e-16	$cmodel	$X=1.061 $Y=7.2015
C5	D	GND	1.12756e-16	$cmodel	$X=0.72 $Y=6.327
C6	S0	GND	9.23168e-17	$cmodel	$X=0.65 $Y=3.0285
C7	S1	GND	6.47096e-17	$cmodel	$X=0.5005 $Y=0.8675
C8	Y	GND	9.50735e-17	$cmodel	$X=26.9755 $Y=15.267
C9	avC11	GND	6.6737e-17	$cmodel	$X=25.041 $Y=15.5595
C10	avC10	GND	7.60563e-16	$cmodel	$X=11.875 $Y=6.854
C11	avC12	GND	2.21845e-16	$cmodel	$X=15.581 $Y=16.084
C12	I0/avC9	GND	1.79569e-16	$cmodel
+ $X=5.851 $Y=20.2205
C13	I0/avC7	GND	2.4215e-18	$cmodel
+ $X=6.5175 $Y=20.132
C14	I2/avC9	GND	1.79569e-16	$cmodel
+ $X=15.5515 $Y=13.1395
C15	I2/avC7	GND	2.4215e-18	$cmodel
+ $X=16.3965 $Y=12.92
C16	I1/avC9	GND	1.79569e-16	$cmodel
+ $X=6.239 $Y=3.5365
C17	I1/avC7	GND	2.4215e-18	$cmodel
+ $X=6.9125 $Y=3.1395
C18	S0#11	GND	6.41047e-17	$cmodel	$X=3.164 $Y=21.708
C19	S0#17	GND	6.41047e-17	$cmodel	$X=3.56 $Y=4.68
C20	B#4	GND	5.27681e-17	$cmodel	$X=6.218 $Y=22.888
C21	A#1	GND	2.21845e-16	$cmodel	$X=5.9225 $Y=23.135
C22	D#4	GND	5.27681e-17	$cmodel	$X=6.6145 $Y=5.8285
C23	C#1	GND	2.21845e-16	$cmodel	$X=6.3085 $Y=6.522
C24	S0#3	GND	2.97197e-16	$cmodel	$X=8.87 $Y=22.5765
C25	S0#5	GND	2.97197e-16	$cmodel	$X=9.2515 $Y=6.173
C26	I0/avC9#3	GND	3.61808e-16	$cmodel
+ $X=8.1055 $Y=23.589
C27	I1/avC9#3	GND	3.60133e-16	$cmodel
+ $X=8.48 $Y=7.49
C28	S1#9	GND	6.41047e-17	$cmodel	$X=13.064 $Y=14.481
C29	avC10#6	GND	5.27681e-17	$cmodel
+ $X=16.136 $Y=15.648
C30	S1#3	GND	2.97197e-16	$cmodel	$X=18.407 $Y=15.6145
C31	I2/avC9#3	GND	3.61808e-16	$cmodel
+ $X=17.4655 $Y=16.756
C32	S0#8	GND	4.29201e-16	$cmodel	$X=5.159 $Y=18.37
C33	S0#14	GND	4.29201e-16	$cmodel	$X=5.5315 $Y=2.3385
C34	A#5	GND	1.6027e-16	$cmodel	$X=5.902 $Y=21.533
C35	C#5	GND	1.6027e-16	$cmodel	$X=6.291 $Y=4.806
C36	S0#7	GND	4.18699e-16	$cmodel	$X=7.856 $Y=18.3865
C37	B#1	GND	2.37796e-16	$cmodel	$X=9.1725 $Y=21.2215
C38	S0#13	GND	4.18699e-16	$cmodel	$X=8.229 $Y=2.3395
C39	D#1	GND	2.37796e-16	$cmodel	$X=9.5565 $Y=4.7065
C40	S1#6	GND	4.19834e-16	$cmodel	$X=14.4795 $Y=11.566
C41	avC12#5	GND	1.6027e-16	$cmodel
+ $X=15.627 $Y=14.4335
C42	S1#5	GND	4.18699e-16	$cmodel	$X=17.1855 $Y=11.576
C43	avC10#3	GND	2.37796e-16	$cmodel
+ $X=18.774 $Y=14.212
C44	avC11#4	GND	5.57872e-17	$cmodel
+ $X=25.059 $Y=14.453
C45	S0#2	GND	3.24212e-16	$cmodel	$X=1.924 $Y=4.293
C46	S0#1	GND	7.13811e-16	$cmodel	$X=3.0385 $Y=8.208
C47	S1#2	GND	1.25219e-15	$cmodel	$X=6.0685 $Y=0.973
C48	B#3	GND	3.17242e-16	$cmodel	$X=2.737 $Y=21.709
C49	A#3	GND	1.57105e-16	$cmodel	$X=2.7245 $Y=23.591
C50	S0#10	GND	9.81247e-17	$cmodel	$X=2.591 $Y=20.742
C51	D#3	GND	3.17322e-16	$cmodel	$X=3.112 $Y=5.568
C52	C#3	GND	1.57087e-16	$cmodel	$X=3.111 $Y=6.969
C53	S0#16	GND	9.36673e-17	$cmodel	$X=2.9805 $Y=3.9925
C54	I0/avC9#4	GND	5.01061e-16	$cmodel
+ $X=5.1275 $Y=22.513
C55	I1/avC9#4	GND	5.01061e-16	$cmodel
+ $X=5.489 $Y=6.9645
C56	A#6	GND	2.83625e-16	$cmodel	$X=4.7555 $Y=21.289
C57	A#4	GND	1.40597e-16	$cmodel	$X=4.231 $Y=23.045
C58	I0/avC9#2	GND	2.27946e-16	$cmodel
+ $X=4.4745 $Y=19.48
C59	C#6	GND	2.83625e-16	$cmodel	$X=5.136 $Y=4.921
C60	C#4	GND	1.40597e-16	$cmodel	$X=4.6185 $Y=6.38
C61	S0#12	GND	1.95179e-16	$cmodel	$X=4.5205 $Y=20.7265
C62	S0#4	GND	4.48054e-16	$cmodel	$X=5.012 $Y=21.633
C63	I1/avC9#2	GND	2.27946e-16	$cmodel
+ $X=4.856 $Y=3.058
C64	S0#18	GND	1.95179e-16	$cmodel	$X=4.9045 $Y=4.208
C65	S0#6	GND	4.48054e-16	$cmodel	$X=5.384 $Y=5.629
C66	avC10#2	GND	6.60734e-16	$cmodel
+ $X=10.929 $Y=13.9935
C67	S1#1	GND	1.21415e-15	$cmodel	$X=12.15 $Y=10.324
C68	avC10#5	GND	3.12267e-16	$cmodel
+ $X=12.121 $Y=14.8585
C69	avC12#3	GND	1.52703e-16	$cmodel
+ $X=12.3885 $Y=16.5365
C70	S1#8	GND	9.26714e-17	$cmodel	$X=12.3325 $Y=13.6375
C71	I2/avC9#4	GND	5.01061e-16	$cmodel
+ $X=14.1675 $Y=15.914
C72	avC12#6	GND	2.83625e-16	$cmodel
+ $X=14.272 $Y=14.342
C73	avC12#4	GND	1.40597e-16	$cmodel
+ $X=13.9195 $Y=15.972
C74	I2/avC9#2	GND	2.27946e-16	$cmodel
+ $X=14.022 $Y=12.5105
C75	S1#10	GND	1.95179e-16	$cmodel	$X=14.1245 $Y=13.7155
C76	S1#4	GND	4.48054e-16	$cmodel	$X=14.317 $Y=14.8405
C77	VDD#2	GND	7.80712e-16	$cmodel	$X=19.934 $Y=8.9045
C78	VDD#1	GND	3.50726e-16	$cmodel	$X=21.8405 $Y=14.7775
C79	avC11#3	GND	8.18463e-17	$cmodel
+ $X=24.2295 $Y=14.7585
C80	I0/avC10#6	GND	5.9699e-19	$cmodel
+ $X=5.984 $Y=22.7995
C81	I1/avC10#6	GND	5.9699e-19	$cmodel
+ $X=6.379 $Y=5.807
C82	I0/avC10#12	GND	1.41201e-18	$cmodel
+ $X=6.5175 $Y=24.1825
C83	I1/avC10#12	GND	1.41201e-18	$cmodel
+ $X=6.9125 $Y=7.19
C84	I2/avC10#6	GND	5.9699e-19	$cmodel
+ $X=15.863 $Y=15.5875
C85	I2/avC10#12	GND	1.41201e-18	$cmodel
+ $X=16.3965 $Y=16.9705
C86	I0/avC7#4	GND	1.3731e-18	$cmodel
+ $X=5.984 $Y=21.4165
C87	I1/avC7#4	GND	1.3731e-18	$cmodel
+ $X=6.379 $Y=4.4235
C88	I2/avC7#4	GND	1.3731e-18	$cmodel
+ $X=15.863 $Y=14.2045
C89	S0#20	GND	5.05456e-16	$cmodel	$X=2.6055 $Y=15.9945
C90	VDD#40	GND	1.43347e-15	$cmodel	$X=11.5435 $Y=10.774
C91	B#6	GND	9.39584e-17	$cmodel	$X=1.527 $Y=22.62
C92	A#8	GND	8.18179e-17	$cmodel	$X=1.521 $Y=23.8225
C93	S0#23	GND	6.15768e-17	$cmodel	$X=1.9675 $Y=4.012
C94	VDD#4	GND	1.85412e-15	$cmodel	$X=12 $Y=3.4165
C95	D#6	GND	1.11214e-16	$cmodel	$X=1.8715 $Y=5.8305
C96	C#8	GND	9.21157e-17	$cmodel	$X=1.877 $Y=7.0095
C97	avC12#9	GND	3.10887e-16	$cmodel
+ $X=11.074 $Y=19.608
C98	avC10#8	GND	1.57849e-16	$cmodel
+ $X=10.9055 $Y=5.0005
C99	S1#13	GND	8.30269e-17	$cmodel	$X=11.3715 $Y=13.4295
C100	VDD#34	GND	1.77055e-15	$cmodel	$X=15.4755 $Y=7.0965
C101	avC10#25	GND	4.28622e-17	$cmodel
+ $X=11.4685 $Y=15.6805
C102	avC12#8	GND	3.10339e-16	$cmodel
+ $X=11.062 $Y=17.151
C103	avC11#7	GND	1.59475e-16	$cmodel
+ $X=20.601 $Y=14.4315
C104	avC11#6	GND	1.48294e-16	$cmodel
+ $X=22.7475 $Y=14.4785
C105	VDD#27	GND	6.58631e-16	$cmodel	$X=21.064 $Y=10.733
C106	Y#1	GND	9.81174e-17	$cmodel	$X=25.9845 $Y=14.707
C107	I0/avC9#7	GND	1.04577e-16	$cmodel
+ $X=3.6315 $Y=20.19
C108	I0/avC9#10	GND	2.13289e-16	$cmodel
+ $X=3.8265 $Y=21.4885
C109	I1/avC9#7	GND	1.04591e-16	$cmodel
+ $X=4.02 $Y=3.4675
C110	I1/avC9#10	GND	2.13296e-16	$cmodel
+ $X=4.2085 $Y=5.0655
C111	I0/avC7#2	GND	9.0941e-17	$cmodel
+ $X=6.593 $Y=20.142
C112	I0/avC7#5	GND	1.20244e-16	$cmodel
+ $X=6.065 $Y=20.8365
C113	I1/avC7#2	GND	9.0941e-17	$cmodel
+ $X=6.9845 $Y=3.31
C114	I1/avC7#5	GND	1.20244e-16	$cmodel
+ $X=6.4565 $Y=4.0045
C115	I0/avC10#2	GND	6.69179e-17	$cmodel
+ $X=9.2905 $Y=23.955
C116	I0/avC10#4	GND	1.55833e-16	$cmodel
+ $X=9.032 $Y=22.945
C117	I0/avC10#5	GND	1.61072e-16	$cmodel
+ $X=6.7635 $Y=23.113
C118	I0/avC10#7	GND	9.18807e-17	$cmodel
+ $X=6.028 $Y=22.9795
C119	I0/avC10#10	GND	6.98343e-17	$cmodel
+ $X=8.883 $Y=22.9695
C120	I0/avC10#13	GND	4.34441e-17	$cmodel
+ $X=6.4835 $Y=24.208
C121	I0/avC8#2	GND	9.43845e-17	$cmodel
+ $X=9.3335 $Y=20.142
C122	I0/avC8#5	GND	1.16627e-16	$cmodel
+ $X=8.805 $Y=20.8365
C123	I1/avC10#2	GND	6.71245e-17	$cmodel
+ $X=9.685 $Y=6.985
C124	I1/avC10#4	GND	1.55997e-16	$cmodel
+ $X=9.4165 $Y=6.412
C125	I1/avC10#5	GND	1.61072e-16	$cmodel
+ $X=7.1465 $Y=6.6415
C126	I1/avC10#7	GND	9.18807e-17	$cmodel
+ $X=6.421 $Y=6.0745
C127	I1/avC10#10	GND	6.98497e-17	$cmodel
+ $X=9.278 $Y=5.991
C128	I1/avC10#13	GND	4.34441e-17	$cmodel
+ $X=6.8805 $Y=7.144
C129	I1/avC8#2	GND	9.43235e-17	$cmodel
+ $X=9.7245 $Y=3.31
C130	I1/avC8#5	GND	1.16627e-16	$cmodel
+ $X=9.1965 $Y=4.0045
C131	avC10#9	GND	8.67361e-17	$cmodel
+ $X=9.746 $Y=4.9395
C132	avC10#10	GND	1.16494e-16	$cmodel
+ $X=8.392 $Y=5.036
C133	avC10#11	GND	1.02303e-16	$cmodel
+ $X=7.5335 $Y=5.0475
C134	avC10#13	GND	4.92099e-17	$cmodel
+ $X=6.8995 $Y=4.557
C135	avC10#16	GND	4.89235e-17	$cmodel
+ $X=9.6705 $Y=4.557
C136	avC10#19	GND	5.44364e-17	$cmodel
+ $X=8.7305 $Y=5.6855
C137	avC10#22	GND	5.2298e-17	$cmodel
+ $X=6.8995 $Y=5.6855
C138	avC12#10	GND	8.67361e-17	$cmodel
+ $X=9.356 $Y=21.6975
C139	avC12#11	GND	1.16494e-16	$cmodel
+ $X=8.0055 $Y=21.6565
C140	avC12#12	GND	1.02303e-16	$cmodel
+ $X=7.146 $Y=21.7205
C141	avC12#14	GND	4.92099e-17	$cmodel
+ $X=6.504 $Y=21.578
C142	avC12#17	GND	4.89845e-17	$cmodel
+ $X=9.2745 $Y=21.578
C143	avC12#20	GND	5.44364e-17	$cmodel
+ $X=8.3345 $Y=22.7065
C144	avC12#23	GND	5.2298e-17	$cmodel
+ $X=6.504 $Y=22.7065
C145	I2/avC9#7	GND	1.04545e-16	$cmodel
+ $X=13.3535 $Y=13.0925
C146	I2/avC9#10	GND	2.133e-16	$cmodel
+ $X=13.375 $Y=14.5185
C147	I2/avC7#2	GND	9.0941e-17	$cmodel
+ $X=16.3795 $Y=12.998
C148	I2/avC7#5	GND	1.20244e-16	$cmodel
+ $X=15.851 $Y=13.6925
C149	I2/avC10#2	GND	6.69179e-17	$cmodel
+ $X=19.157 $Y=16.753
C150	I2/avC10#4	GND	1.55833e-16	$cmodel
+ $X=18.644 $Y=15.928
C151	I2/avC10#5	GND	1.61072e-16	$cmodel
+ $X=16.34 $Y=16.1225
C152	I2/avC10#7	GND	9.18807e-17	$cmodel
+ $X=15.8565 $Y=15.8045
C153	I2/avC10#10	GND	6.98343e-17	$cmodel
+ $X=18.7545 $Y=15.7635
C154	I2/avC10#13	GND	4.34441e-17	$cmodel
+ $X=16.4045 $Y=16.9655
C155	I2/avC8#2	GND	9.43235e-17	$cmodel
+ $X=19.1195 $Y=12.998
C156	I2/avC8#5	GND	1.16627e-16	$cmodel
+ $X=18.591 $Y=13.6925
C157	VDD#9	GND	8.60032e-17	$cmodel	$X=9.2275 $Y=7.045
C158	VDD#14	GND	7.925e-17	$cmodel	$X=6.595 $Y=7.045
C159	VDD#22	GND	2.19963e-16	$cmodel	$X=4.4695 $Y=4.7355
C160	avC11#8	GND	8.67361e-17	$cmodel
+ $X=19.0995 $Y=14.585
C161	avC11#9	GND	1.16494e-16	$cmodel
+ $X=17.6685 $Y=14.6025
C162	avC11#10	GND	1.02303e-16	$cmodel
+ $X=16.8395 $Y=14.644
C163	avC11#12	GND	4.92099e-17	$cmodel
+ $X=16.4 $Y=14.354
C164	avC11#15	GND	4.89235e-17	$cmodel
+ $X=19.1705 $Y=14.354
C165	avC11#18	GND	5.44364e-17	$cmodel
+ $X=18.2305 $Y=15.4825
C166	avC11#21	GND	5.2298e-17	$cmodel
+ $X=16.4 $Y=15.4825
C167	Y#2	GND	5.51383e-17	$cmodel	$X=25.24 $Y=14.8845
C168	Y#4	GND	4.66602e-17	$cmodel	$X=25.3285 $Y=14.5295
C169	Y#7	GND	5.6237e-17	$cmodel	$X=25.306 $Y=15.4825
C170	VDD#29	GND	4.19353e-17	$cmodel	$X=24.291 $Y=15.2495
C171	VDD#36	GND	2.18089e-16	$cmodel	$X=12.8405 $Y=13.368
C172	VDD#48	GND	8.60145e-17	$cmodel	$X=8.8515 $Y=23.217
C173	VDD#53	GND	7.925e-17	$cmodel	$X=15.6215 $Y=16.353
C174	VDD#58	GND	7.925e-17	$cmodel	$X=6.219 $Y=23.217
C175	VDD#63	GND	8.60145e-17	$cmodel	$X=18.254 $Y=16.353
C176	VDD#74	GND	2.19932e-16	$cmodel	$X=4.1205 $Y=19.7335
C177	A#2	GND	2.77997e-16	$cmodel	$X=4.7475 $Y=23.1385
C178	C#2	GND	2.77997e-16	$cmodel	$X=5.126 $Y=6.8575
C179	B#2	GND	4.47795e-16	$cmodel	$X=5.772 $Y=20.8835
C180	S0#9	GND	1.22346e-16	$cmodel	$X=3.367 $Y=20.745
C181	D#2	GND	4.47795e-16	$cmodel	$X=6.1395 $Y=5.0825
C182	S0#15	GND	1.22404e-16	$cmodel	$X=3.7555 $Y=4.02
C183	avC12#2	GND	2.77997e-16	$cmodel
+ $X=14.2135 $Y=16.2285
C184	avC10#4	GND	4.47795e-16	$cmodel
+ $X=14.9585 $Y=14.1775
C185	S1#7	GND	1.22573e-16	$cmodel	$X=13.0905 $Y=13.6465
C186	avC11#2	GND	6.83903e-17	$cmodel
+ $X=24.987 $Y=14.902
*
*
.ENDS MUX_4_1
*
